Comparison of the Ganglionated Plexi Activity in Patients With Different Forms of Atrial Fibrillation Guided by SUMO Technology